*****
 OpenBabel09102001113D

 66 66  0  0  1  0  0  0  0  0999 V2000
   14.6200    9.9440   24.4710 C   0  0  0  0  0  0  0  0  0  0  0  0
   15.7480    8.9120   24.4560 C   0  0  0  0  0  0  0  0  0  0  0  0
   16.0850    8.4010   25.5410 O   0  0  0  0  0  0  0  0  0  0  0  0
   16.3130    8.6420   23.3670 O   0  0  0  0  0  0  0  0  0  0  0  0
   13.2690    9.2400   24.5300 C   0  0  0  0  0  0  0  0  0  0  0  0
   12.9530    8.6610   25.9060 C   0  0  0  0  0  0  0  0  0  0  0  0
   11.5780    8.0220   25.9870 C   0  0  0  0  0  0  0  0  0  0  0  0
   10.7970    8.0380   25.0250 O   0  0  0  0  0  0  0  0  0  0  0  0
   11.2470    7.5340   27.1750 N   0  0  0  0  0  0  0  0  0  0  0  0
    9.9720    6.8700   27.4160 C   0  0  2  0  0  0  0  0  0  0  0  0
    9.3670    7.3930   28.7190 C   0  0  0  0  0  0  0  0  0  0  0  0
   10.0850    7.8880   29.5910 O   0  0  0  0  0  0  0  0  0  0  0  0
   10.2030    5.3550   27.5530 C   0  0  0  0  0  0  0  0  0  0  0  0
   11.4450    4.7020   26.3760 S   0  0  0  0  0  0  0  0  0  0  0  0
    8.0510    7.2770   28.8380 N   0  0  0  0  0  0  0  0  0  0  0  0
    7.3820    7.6900   30.0580 C   0  0  0  0  0  0  0  0  0  0  0  0
    6.9000    9.1180   30.0690 C   0  0  0  0  0  0  0  0  0  0  0  0
    6.0060    9.4220   30.8870 O   0  0  0  0  0  0  0  0  0  0  0  0
    7.3950    9.9270   29.2540 O   0  0  0  0  0  0  0  0  0  0  0  0
    5.7920    2.7370   28.0810 C   0  0  0  0  0  0  0  0  0  0  0  0
    5.1050    2.1790   29.1650 O   0  0  0  0  0  0  0  0  0  0  0  0
    7.1260    2.3100   27.8760 C   0  0  0  0  0  0  0  0  0  0  0  0
    7.8880    2.8040   26.8050 C   0  0  0  0  0  0  0  0  0  0  0  0
    7.3230    3.7760   25.8990 C   0  0  0  0  0  0  0  0  0  0  0  0
    5.9880    4.1980   26.1300 C   0  0  0  0  0  0  0  0  0  0  0  0
    5.2430    3.6890   27.1990 C   0  0  0  0  0  0  0  0  0  0  0  0
    8.0950    4.3720   24.7030 C   0  0  0  0  0  0  0  0  0  0  0  0
    7.5850    5.1970   23.9310 O   0  0  0  0  0  0  0  0  0  0  0  0
    9.6100    3.9850   24.4110 C   0  0  1  0  0  0  0  0  0  0  0  0
    9.8770    3.3130   23.0520 C   0  0  0  0  0  0  0  0  0  0  0  0
   11.1860    2.5160   22.9220 C   0  0  0  0  0  0  0  0  0  0  0  0
   10.6730    5.0250   24.7730 C   0  0  0  0  0  0  0  0  0  0  0  0
    4.0210    1.1970   29.0350 C   0  0  0  0  0  0  0  0  0  0  0  0
    3.8530    0.2730   30.2430 C   0  0  0  0  0  0  0  0  0  0  0  0
    4.7490   -0.5720   30.4860 O   0  0  0  0  0  0  0  0  0  0  0  0
    2.8040    0.3540   30.9250 O   0  0  0  0  0  0  0  0  0  0  0  0
    7.8760    1.1450   28.9840 Cl  0  0  0  0  0  0  0  0  0  0  0  0
    9.5230    2.1350   26.6450 Cl  0  0  0  0  0  0  0  0  0  0  0  0
   14.7284   10.5851   25.3582 H   0  0  0  0  0  0  0  0  0  0  0  0
   13.2699    8.4196   23.7972 H   0  0  0  0  0  0  0  0  0  0  0  0
   12.4849    9.9654   24.2674 H   0  0  0  0  0  0  0  0  0  0  0  0
   13.0051    9.4725   26.6467 H   0  0  0  0  0  0  0  0  0  0  0  0
   13.7076    7.8972   26.1452 H   0  0  0  0  0  0  0  0  0  0  0  0
   11.8946    7.6247   27.9316 H   0  0  0  0  0  0  0  0  0  0  0  0
    9.2861    7.0690   26.5794 H   0  0  0  0  0  0  0  0  0  0  0  0
    9.2481    4.8387   27.3750 H   0  0  0  0  0  0  0  0  0  0  0  0
   10.5479    5.1456   28.5763 H   0  0  0  0  0  0  0  0  0  0  0  0
    7.5156    6.9020   28.0812 H   0  0  0  0  0  0  0  0  0  0  0  0
    8.0859    7.5612   30.8934 H   0  0  0  0  0  0  0  0  0  0  0  0
    6.5111    7.0350   30.2080 H   0  0  0  0  0  0  0  0  0  0  0  0
    5.5377    4.9275   25.4666 H   0  0  0  0  0  0  0  0  0  0  0  0
    4.2263    4.0327   27.3514 H   0  0  0  0  0  0  0  0  0  0  0  0
    9.7941    3.1773   25.1346 H   0  0  0  0  0  0  0  0  0  0  0  0
    9.8899    4.1026   22.2863 H   0  0  0  0  0  0  0  0  0  0  0  0
    9.0447    2.6221   22.8523 H   0  0  0  0  0  0  0  0  0  0  0  0
   11.2564    2.0891   21.9107 H   0  0  0  0  0  0  0  0  0  0  0  0
   11.1963    1.7042   23.6641 H   0  0  0  0  0  0  0  0  0  0  0  0
   12.0415    3.1847   23.0981 H   0  0  0  0  0  0  0  0  0  0  0  0
   10.1990    6.0171   24.8039 H   0  0  0  0  0  0  0  0  0  0  0  0
   11.4535    5.0155   23.9979 H   0  0  0  0  0  0  0  0  0  0  0  0
    4.2260    0.5740   28.1519 H   0  0  0  0  0  0  0  0  0  0  0  0
    3.0781    1.7438   28.8871 H   0  0  0  0  0  0  0  0  0  0  0  0
   14.6731   10.5345   23.5803 H   0  0  0  0  0  0  0  0  0  0  0  0
    5.6703    8.7752   31.4760 H   0  0  0  0  0  0  0  0  0  0  0  0
    2.1566    0.9977   30.7141 H   0  0  0  0  0  0  0  0  0  0  0  0
   16.0245    9.0518   22.5753 H   0  0  0  0  0  0  0  0  0  0  0  0
  1  2  1  0  0  0  0
  1 39  1  0  0  0  0
  1 63  1  0  0  0  0
  2  4  1  0  0  0  0
  2  3  2  0  0  0  0
  4 66  1  0  0  0  0
  5  1  1  0  0  0  0
  5 40  1  0  0  0  0
  5 41  1  0  0  0  0
  6  5  1  0  0  0  0
  6 42  1  0  0  0  0
  6 43  1  0  0  0  0
  7  6  1  0  0  0  0
  7  8  2  0  0  0  0
  9  7  1  0  0  0  0
  9 44  1  0  0  0  0
 10  9  1  0  0  0  0
 10 11  1  0  0  0  0
 10 45  1  6  0  0  0
 11 15  1  0  0  0  0
 11 12  2  0  0  0  0
 13 10  1  0  0  0  0
 13 46  1  0  0  0  0
 13 47  1  0  0  0  0
 14 13  1  0  0  0  0
 15 16  1  0  0  0  0
 15 48  1  0  0  0  0
 16 17  1  0  0  0  0
 16 49  1  0  0  0  0
 16 50  1  0  0  0  0
 17 19  2  0  0  0  0
 17 18  1  0  0  0  0
 18 64  1  0  0  0  0
 20 21  1  0  0  0  0
 21 33  1  0  0  0  0
 22 20  2  0  0  0  0
 22 37  1  0  0  0  0
 23 22  1  0  0  0  0
 23 38  1  0  0  0  0
 24 23  2  0  0  0  0
 24 25  1  0  0  0  0
 25 26  2  0  0  0  0
 25 51  1  0  0  0  0
 26 20  1  0  0  0  0
 26 52  1  0  0  0  0
 27 24  1  0  0  0  0
 27 28  2  0  0  0  0
 29 27  1  0  0  0  0
 29 30  1  0  0  0  0
 29 53  1  1  0  0  0
 30 31  1  0  0  0  0
 30 54  1  0  0  0  0
 30 55  1  0  0  0  0
 31 56  1  0  0  0  0
 31 57  1  0  0  0  0
 31 58  1  0  0  0  0
 32 29  1  0  0  0  0
 32 14  1  0  0  0  0
 32 59  1  0  0  0  0
 32 60  1  0  0  0  0
 33 34  1  0  0  0  0
 33 61  1  0  0  0  0
 33 62  1  0  0  0  0
 34 36  1  0  0  0  0
 34 35  2  0  0  0  0
 36 65  1  0  0  0  0
M  END
$$$$
