11gs_ligand

Created by X-TOOL on Fri Nov 18 12:30:35 2016
 66 66  0  0  0  0  0  0  0  0999 V2000
   14.7090   10.7820   23.2520  N 0  3  0  4  0  4
   14.6200    9.9440   24.4710  C 0  0  0  2  0  4
   15.7480    8.9120   24.4560  C 0  5  0  1  0  3
   16.0850    8.4010   25.5410  O 0  0  0  1  0  1
   16.3130    8.6420   23.3670  O 0  0  0  1  0  1
   13.2690    9.2400   24.5300  C 0  0  0  3  0  4
   12.9530    8.6610   25.9060  C 0  0  0  3  0  4
   11.5780    8.0220   25.9870  C 0  0  0  1  0  3
   10.7970    8.0380   25.0250  O 0  0  0  1  0  1
   11.2470    7.5340   27.1750  N 0  0  0  2  0  3
    9.9720    6.8700   27.4160  C 0  0  0  2  0  4
    9.3670    7.3930   28.7190  C 0  0  0  1  0  3
   10.0850    7.8880   29.5910  O 0  0  0  1  0  1
   10.2030    5.3550   27.5530  C 0  0  0  3  0  4
   11.4450    4.7020   26.3760  S 0  0  0  1  0  2
    8.0510    7.2770   28.8380  N 0  0  0  2  0  3
    7.3820    7.6900   30.0580  C 0  0  0  3  0  4
    6.9000    9.1180   30.0690  C 0  5  0  1  0  3
    6.0060    9.4220   30.8870  O 0  0  0  1  0  1
    7.3950    9.9270   29.2540  O 0  0  0  1  0  1
    5.7920    2.7370   28.0810  C 0  0  0  1  0  3
    5.1050    2.1790   29.1650  O 0  0  0  1  0  2
    7.1260    2.3100   27.8760  C 0  0  0  1  0  3
    7.8880    2.8040   26.8050  C 0  0  0  1  0  3
    7.3230    3.7760   25.8990  C 0  0  0  1  0  3
    5.9880    4.1980   26.1300  C 0  0  0  2  0  3
    5.2430    3.6890   27.1990  C 0  0  0  2  0  3
    8.0950    4.3720   24.7030  C 0  0  0  1  0  3
    7.5850    5.1970   23.9310  O 0  0  0  1  0  1
    9.6100    3.9850   24.4110  C 0  0  0  2  0  4
    9.8770    3.3130   23.0520  C 0  0  0  3  0  4
   11.1860    2.5160   22.9220  C 0  0  0  4  0  4
   10.6730    5.0250   24.7730  C 0  0  0  3  0  4
    4.0210    1.1970   29.0350  C 0  0  0  3  0  4
    3.8530    0.2730   30.2430  C 0  5  0  1  0  3
    4.7490   -0.5720   30.4860  O 0  0  0  1  0  1
    2.8040    0.3540   30.9250  O 0  0  0  1  0  1
    7.8760    1.1450   28.9840 Cl 0  0  0  1  0  1
    9.5230    2.1350   26.6450 Cl 0  0  0  1  0  1
   13.9667   11.4639   23.2582  H 0  0  0  1  0  1
   14.6216   10.1976   22.4354  H 0  0  0  1  0  1
   15.5992   11.2545   23.2333  H 0  0  0  1  0  1
   14.7284   10.5851   25.3582  H 0  0  0  1  0  1
   13.2699    8.4196   23.7972  H 0  0  0  1  0  1
   12.4849    9.9654   24.2674  H 0  0  0  1  0  1
   13.0051    9.4725   26.6467  H 0  0  0  1  0  1
   13.7076    7.8972   26.1452  H 0  0  0  1  0  1
   11.8946    7.6247   27.9316  H 0  0  0  1  0  1
    9.2861    7.0690   26.5794  H 0  0  0  1  0  1
    9.2481    4.8387   27.3750  H 0  0  0  1  0  1
   10.5479    5.1456   28.5763  H 0  0  0  1  0  1
    7.5156    6.9020   28.0812  H 0  0  0  1  0  1
    8.0859    7.5612   30.8934  H 0  0  0  1  0  1
    6.5111    7.0350   30.2080  H 0  0  0  1  0  1
    5.5377    4.9275   25.4666  H 0  0  0  1  0  1
    4.2263    4.0327   27.3514  H 0  0  0  1  0  1
    9.7941    3.1773   25.1346  H 0  0  0  1  0  1
    9.8899    4.1026   22.2863  H 0  0  0  1  0  1
    9.0447    2.6221   22.8523  H 0  0  0  1  0  1
   11.2564    2.0891   21.9107  H 0  0  0  1  0  1
   11.1963    1.7042   23.6641  H 0  0  0  1  0  1
   12.0415    3.1847   23.0981  H 0  0  0  1  0  1
   10.1990    6.0171   24.8039  H 0  0  0  1  0  1
   11.4535    5.0155   23.9979  H 0  0  0  1  0  1
    4.2260    0.5740   28.1519  H 0  0  0  1  0  1
    3.0781    1.7438   28.8871  H 0  0  0  1  0  1
  2  1  1  0  0  2
  6  2  1  0  0  2
  2  3  1  0  0  2
  3  5  2  0  0  2
  3  4  2  0  0  2
  7  6  1  0  0  2
  8  7  1  0  0  2
 10  8  1  0  0  2
  8  9  2  0  0  2
 11 10  1  0  0  2
 14 11  1  0  0  2
 11 12  1  0  0  2
 12 16  1  0  0  2
 12 13  2  0  0  2
 16 17  1  0  0  2
 17 18  1  0  0  2
 18 20  2  0  0  2
 18 19  2  0  0  2
 15 14  1  0  0  2
 27 21  4  0  0  1
 23 21  4  0  0  1
 21 22  1  0  0  2
 22 34  1  0  0  2
 34 35  1  0  0  2
 35 37  2  0  0  2
 35 36  2  0  0  2
 24 23  4  0  0  1
 25 24  4  0  0  1
 28 25  1  0  0  2
 25 26  4  0  0  1
 26 27  4  0  0  1
 30 28  1  0  0  2
 28 29  2  0  0  2
 33 30  1  0  0  2
 30 31  1  0  0  2
 31 32  1  0  0  2
 23 38  1  0  0  2
 24 39  1  0  0  2
 33 15  1  0  0  2
  1 40  1  0  0  2
  1 41  1  0  0  2
  1 42  1  0  0  2
  2 43  1  0  0  2
  6 44  1  0  0  2
  6 45  1  0  0  2
  7 46  1  0  0  2
  7 47  1  0  0  2
 10 48  1  0  0  2
 11 49  1  0  0  2
 14 50  1  0  0  2
 14 51  1  0  0  2
 16 52  1  0  0  2
 17 53  1  0  0  2
 17 54  1  0  0  2
 26 55  1  0  0  2
 27 56  1  0  0  2
 30 57  1  0  0  2
 31 58  1  0  0  2
 31 59  1  0  0  2
 32 60  1  0  0  2
 32 61  1  0  0  2
 32 62  1  0  0  2
 33 63  1  0  0  2
 33 64  1  0  0  2
 34 65  1  0  0  2
 34 66  1  0  0  2
M  END
> <MOLECULAR_FORMULA>
C23H27N3O10SCl2

> <MOLECULAR_WEIGHT>
608.2

> <NUM_HB_ATOMS>
14 

> <NUM_ROTOR>
14 

> <XLOGP2>
-0.56

$$$$
